 ****** HSPICE -- Q-2020.03 linux64 (Mar  8 2020) ******                        
  Copyright (c) 1986 - 2023 by Synopsys, Inc. All Rights Reserved.              
  This software and the associated documentation are proprietary
  to Synopsys, Inc. This software may only be used in accordance
  with the terms and conditions of a written license agreement with
  Synopsys, Inc. All other use, reproduction, or distribution of
  this software is strictly prohibited.
  Input File: TSPC.sp                                                           
  Command line options: /usr/cad/synopsys/hspice/cur/hspice/linux64/hspice -i TSPC.sp -o ./lis/TSPC.lis -mt 16
  Start time: Mon Sep  4 04:37:08 2023
 lic:  
 lic: FLEXlm: SDK_12.6 
 lic: USER:   zwpan                HOSTNAME: ares-athena 
 lic: HOSTID: "e61f13c2e205"       PID:      9867 
 lic: Using FLEXlm license file: 
 lic: 26585@lstc 
 lic: Checkout 8 hspice 
 lic: License/Maintenance for hspice will expire on 31-mar-2024/2023.03 
 lic: 355(in_use)/450(total) FLOATING license(s) on SERVER 26585@lstc 
 lic:   
1****** HSPICE -- Q-2020.03 linux64 (Mar  8 2020) ******                        
 ******  
 **** divider ****

 ****** circuit name directory
 circuit number to circuit name directory
   number circuitname                     definition         multiplier
        0 main circuit
        1 xibuf.                          ibuf               1.00 
        2 xdffar.                         dff                1.00 
        3 xdffbr.                         dffc               1.00 
        4 xdffcr.                         dffc               1.00 
        5 xobufa.                         obufa              1.00 
        6 xobufb.                         obufb              1.00 
        7 xobufc.                         obufc              1.00 
        8 xibuf.xbuf0.                    inv                1.00 
        9 xibuf.xbuf1.                    inv                1.00 
       10 xibuf.xbuf2.                    inv                1.00 
       11 xibuf.xbuf3.                    inv                1.00 
       12 xibuf.xbuf4.                    inv                1.00 
       13 xibuf.xbuf5.                    inv                1.00 
       14 xibuf.xbuf6.                    inv                1.00 
       15 xibuf.xbuf.                     inv                1.00 
       16 xobufa.xbufout0.                inv                1.00 
       17 xobufa.xbufout01.               inv                1.00 
       18 xobufa.xbufout02.               inv                1.00 
       19 xobufa.xbufout03.               inv                1.00 
       20 xobufa.xbufout1.                inv                1.00 
       21 xobufa.xbufout2.                inv                1.00 
       22 xobufa.xbufout23.               inv                1.00 
       23 xobufa.xbufout24.               inv                1.00 
       24 xobufa.xbufout41.               inv                1.00 
       25 xobufa.xbufout42.               inv                1.00 
       26 xobufb.xbufout0.                inv                1.00 
       27 xobufb.xbufout01.               inv                1.00 
       28 xobufb.xbufout1.                inv                1.00 
       29 xobufb.xbufout2.                inv                1.00 
       30 xobufb.xbufout23.               inv                1.00 
       31 xobufb.xbufout24.               inv                1.00 
       32 xobufb.xbufout41.               inv                1.00 
       33 xobufb.xbufout42.               inv                1.00 
       34 xobufc.xbufout0.                inv                1.00 
       35 xobufc.xbufout01.               inv                1.00 
       36 xobufc.xbufout1.                inv                1.00 
       37 xobufc.xbufout2.                inv                1.00 
       38 xobufc.xbufout23.               inv                1.00 
       39 xobufc.xbufout24.               inv                1.00 
  **info** (TSPC.sp:105) DC voltage reset to initial transient source value in source 0:vclk. new dc=0.0000D+00
  **warning** More warning messages are suppressed. Set option WARNLIMIT to increase the limit.
  
      
 **info** set option symb=1 internally to help for convergence.
 *****************************************************************
 ******  option summary
 ******
 runlvl  = 3         bypass  = 2.0000    
  Opening plot unit= 15
 file=./lis/TSPC.pa0

 **info** dc convergence successful at GMINDC ramping method 
 ******  
 **** divider ****

 ****** operating point information tnom=  25.000 temp=  27.000 ******
 ****** operating point status is all       simulation time is     0.     
     node    =voltage       node    =voltage       node    =voltage

 + 0:clk     =   0.       0:clko    = 9.547e-06  0:outa    = 1.789e-05
 + 0:outar   =   0.4741   0:outb    = 1.905e-05  0:outbr   =   0.4018 
 + 0:outc    = 1.698e-05  0:outcr   = 5.094e-02  0:vdd     =   1.0000 
 + 0:vss     =   0.       1:out0    =   1.0000   1:out1    = 1.125e-05
 + 1:out2    =   1.0000   1:out3    = 1.125e-05  1:out4    =   1.0000 
 + 1:out5    = 1.115e-05  1:out6    =   1.0000   2:s10     =   0.9486 
 + 2:s1o     =   0.2899   2:s20     =   0.4741   2:s2o     =   0.9866 
 + 3:s10     =   0.8764   3:s1o     =   0.4287   3:s20     = 8.510e-02
 + 3:s2o     =   0.5400   3:s2s     = 3.936e-02  4:s10     =   0.9999 
 + 4:s1o     =   0.9998   4:s20     = 4.311e-02  4:s2o     =   0.6939 
 + 4:s2s     =   0.4722   5:out0    =   0.5338   5:out01   =   0.2810 
 + 5:out02   =   0.9864   5:out03   = 1.978e-05  5:out1    =   1.0000 
 + 5:out2    = 1.145e-05  5:out23   =   1.0000   5:out24   = 1.132e-05
 + 5:out41   =   1.0000   6:out0    =   0.8890   6:out01   = 2.715e-04
 + 6:out1    =   1.0000   6:out2    = 1.132e-05  6:out23   =   1.0000 
 + 6:out24   = 1.678e-05  6:out41   =   1.0000   7:out0    =   0.9999 
 + 7:out01   = 1.679e-05  7:out1    =   1.0000   7:out2    = 1.132e-05
 + 7:out23   =   1.0000 


 **** voltage sources

 subckt                                      
 element   0:vclk      0:vdd       0:vss     
  volts       0.          1.0000      0.     
  current   2.368e-09  -2.642e-04   2.642e-04
  power       0.        2.642e-04     0.     

     total voltage source power dissipation=  2.642e-04       watts




 **** mosfets


 subckt    xdffar      xdffar      xdffar      xdffar      xdffar    
 element   2:mp0       2:mp1       2:mn0       2:mp2       2:mn1     
 model     0:pmos      0:pmos      0:nmos      0:pmos      0:nmos    
 region    Linear      Saturation  Saturation  Linear      Subth     
  id       -6.977e-05  -6.977e-05   6.977e-05  -1.887e-05   1.887e-05
  ibs      -6.649e-25   4.115e-13   1.220e-24  -3.298e-25   5.405e-24
  ibd       4.804e-13   5.760e-12  -1.200e-12   1.398e-13  -4.983e-12
  vgs        -1.0000     -0.4745      0.4741     -1.0000      0.2899 
  vds      -5.142e-02    -0.6586      0.2899   -1.342e-02     0.9866 
  vbs         0.        5.142e-02     0.          0.          0.     
  vth        -0.3342     -0.2782      0.3728     -0.3384      0.3103 
  vdsat      -0.4909     -0.1952    9.604e-02    -0.4889    5.525e-02
  vod        -0.6657     -0.1963      0.1013     -0.6616   -2.037e-02
  beta      2.693e-03   3.425e-03   1.659e-02   2.687e-03   2.269e-02
  gam eff     0.4000      0.4000      0.4000      0.4000      0.4000 
  gm        6.897e-05   5.456e-04   6.826e-04   1.786e-05   3.254e-04
  gds       1.291e-03   7.559e-05   7.902e-05   1.388e-03   3.182e-05
  gmb       2.519e-05   1.139e-04   1.579e-04   6.743e-06   7.448e-05
  cdtot     2.482e-15   1.244e-15   7.635e-16   2.604e-15   7.214e-16
  cgtot     2.827e-15   2.304e-15   1.212e-15   2.835e-15   1.048e-15
  cstot     2.430e-15   2.594e-15   1.282e-15   2.364e-15   1.379e-15
  cbtot     2.283e-15   2.115e-15   1.107e-15   2.301e-15   1.332e-15
  cgs       1.652e-15   1.716e-15   7.953e-16   1.600e-15   6.130e-16
  cgd       1.174e-15   5.276e-16   3.799e-16   1.235e-15   3.191e-16



 subckt    xdffar      xdffar      xdffar      xdffbr      xdffbr    
 element   2:mp3       2:mn2       2:mn3       3:mp0       3:mp1     
 model     0:pmos      0:nmos      0:nmos      0:pmos      0:pmos    
 region    Subth       Linear      Subth       Linear      Saturation
  id       -8.005e-09   7.983e-09   7.997e-09  -1.797e-05  -1.797e-05
  ibs      -3.520e-24  -2.845e-12   2.725e-24  -3.774e-25   3.709e-13
  ibd       3.751e-12  -2.905e-12  -2.905e-12   4.006e-13   1.744e-12
  vgs      -1.342e-02     0.5125    9.547e-06    -0.5259     -0.4746 
  vds        -0.5259    1.001e-05     0.4741     -0.1236     -0.4477 
  vbs         0.         -0.4741      0.          0.          0.1236 
  vth        -0.2825      0.4928      0.3563     -0.3264     -0.3150 
  vdsat    -4.603e-02   6.850e-02   3.897e-02    -0.1981     -0.1723 
  vod         0.2691    1.966e-02    -0.3563     -0.1995     -0.1596 
  beta      2.941e-03   2.216e-02   2.630e-02   1.211e-03   1.237e-03
  gam eff     0.4000      0.4000      0.4000      0.4000      0.4000 
  gm        2.145e-07   8.659e-08   2.128e-07   1.085e-04   1.678e-04
  gds       2.588e-08   7.976e-04   2.073e-08   9.713e-05   2.355e-05
  gmb       4.976e-08   1.721e-08   5.677e-08   2.462e-05   3.334e-05
  cdtot     1.064e-15   1.317e-15   9.338e-16   6.027e-16   5.201e-16
  cgtot     1.283e-15   1.635e-15   1.134e-15   9.561e-16   8.969e-16
  cstot     1.746e-15   1.587e-15   1.503e-15   9.819e-16   9.535e-16
  cbtot     1.931e-15   1.508e-15   1.673e-15   8.398e-16   7.876e-16
  cgs       6.265e-16   8.551e-16   5.434e-16   6.461e-16   6.277e-16
  cgd       4.547e-16   6.973e-16   4.059e-16   2.894e-16   2.452e-16



 subckt    xdffbr      xdffbr      xdffbr      xdffbr      xdffbr    
 element   3:mn0       3:mp2       3:mn1       3:mn4       3:mp3     
 model     0:nmos      0:pmos      0:nmos      0:nmos      0:pmos    
 region    Saturation  Saturation  Saturation  Linear      Saturation
  id        1.797e-05  -2.218e-05   2.218e-05   2.218e-05  -2.377e-05
  ibs       8.669e-25  -9.196e-25  -1.181e-13   1.337e-25  -1.779e-24
  ibd      -8.774e-13   9.400e-13  -1.650e-12  -1.415e-13   1.825e-12
  vgs         0.4018     -0.5259      0.3894      0.4741     -0.4600 
  vds         0.4287     -0.4600      0.5006    3.936e-02    -0.5982 
  vbs         0.          0.       -3.936e-02     0.          0.     
  vth         0.3603     -0.2897      0.3625      0.3953     -0.2746 
  vdsat     7.365e-02    -0.2217    6.896e-02   8.776e-02    -0.1868 
  vod       4.145e-02    -0.2362    2.686e-02   7.885e-02    -0.1854 
  beta      8.525e-03   8.349e-04   1.279e-02   1.222e-02   1.294e-03
  gam eff     0.4000      0.4000      0.4000      0.4000      0.4000 
  gm        2.414e-04   1.448e-04   3.194e-04   1.834e-04   1.958e-04
  gds       2.487e-05   2.241e-05   3.238e-05   4.236e-04   2.714e-05
  gmb       5.539e-05   3.146e-05   7.189e-05   4.391e-05   4.189e-05
  cdtot     3.515e-16   3.559e-16   5.021e-16   6.386e-16   4.807e-16
  cgtot     5.289e-16   6.201e-16   7.482e-16   9.092e-16   8.694e-16
  cstot     6.026e-16   6.591e-16   8.783e-16   9.417e-16   9.789e-16
  cbtot     5.488e-16   5.433e-16   8.096e-16   8.543e-16   8.087e-16
  cgs       3.294e-16   4.391e-16   4.614e-16   5.636e-16   6.384e-16
  cgd       1.689e-16   1.674e-16   2.360e-16   3.152e-16   2.070e-16



 subckt    xdffbr      xdffbr      xdffcr      xdffcr      xdffcr    
 element   3:mn2       3:mn3       4:mp0       4:mp1       4:mn0     
 model     0:nmos      0:nmos      0:pmos      0:pmos      0:nmos    
 region    Saturation  Saturation  Linear      Linear      Subth     
  id        2.377e-05   2.377e-05  -3.861e-08  -3.861e-08   3.839e-08
  ibs      -1.702e-13   1.815e-25  -3.333e-28   4.391e-16   1.899e-24
  ibd      -8.236e-13  -1.895e-13   6.078e-16   9.238e-16  -2.020e-12
  vgs         0.4549      0.4741     -0.5982     -0.9489    5.094e-02
  vds         0.3167    8.510e-02  -1.462e-04  -7.610e-05     0.9998 
  vbs      -8.510e-02     0.          0.        1.462e-04     0.     
  vth         0.3888      0.3912     -0.3398     -0.3399      0.3091 
  vdsat     8.302e-02   8.925e-02    -0.2388     -0.4582    3.877e-02
  vod       6.609e-02   8.295e-02    -0.2584     -0.6090     -0.2582 
  beta      8.221e-03   8.174e-03   1.172e-03   1.028e-03   9.197e-03
  gam eff     0.4000      0.4000      0.4000      0.4000      0.4000 
  gm        2.823e-04   2.291e-04   1.296e-07   4.058e-08   9.848e-07
  gds       3.075e-05   1.255e-04   2.640e-04   5.073e-04   9.474e-08
  gmb       6.262e-05   5.366e-05   3.399e-08   1.484e-08   2.473e-07
  cdtot     3.736e-16   4.063e-16   9.073e-16   9.840e-16   2.863e-16
  cgtot     5.759e-16   6.047e-16   1.012e-15   1.060e-15   3.755e-16
  cstot     6.132e-16   6.325e-16   8.856e-16   8.786e-16   5.086e-16
  cbtot     5.384e-16   5.649e-16   8.659e-16   8.651e-16   5.388e-16
  cgs       3.642e-16   3.823e-16   5.687e-16   5.920e-16   1.886e-16
  cgd       1.883e-16   2.019e-16   4.329e-16   4.675e-16   1.272e-16



 subckt    xdffcr      xdffcr      xdffcr      xdffcr      xdffcr    
 element   4:mp2       4:mn1       4:mn4       4:mp3       4:mn2     
 model     0:pmos      0:nmos      0:nmos      0:pmos      0:nmos    
 region    Saturation  Saturation  Saturation  Saturation  Linear    
  id       -2.861e-05   2.861e-05   2.861e-05  -7.160e-06   7.160e-06
  ibs      -6.083e-25  -1.417e-12   1.435e-24  -2.740e-24  -8.625e-14
  ibd       6.323e-13  -2.112e-12  -1.447e-12   2.877e-12  -1.191e-13
  vgs        -0.5982      0.5276      0.4018     -0.3061      0.6508 
  vds        -0.3061      0.2217      0.4722     -0.9491    7.836e-03
  vbs         0.         -0.4722      0.          0.       -4.311e-02
  vth        -0.3065      0.4726      0.3564     -0.2363      0.4075 
  vdsat      -0.2595    8.044e-02   7.492e-02    -0.1103      0.1553 
  vod        -0.2918    5.498e-02   4.535e-02  -6.982e-02     0.2433 
  beta      8.034e-04   1.125e-02   1.283e-02   1.376e-03   7.600e-03
  gam eff     0.4000      0.4000      0.4000      0.4000      0.4000 
  gm        1.431e-04   3.644e-04   3.768e-04   1.035e-04   1.614e-05
  gds       3.593e-05   4.313e-05   3.862e-05   1.291e-05   8.914e-04
  gmb       3.198e-05   7.029e-05   8.641e-05   2.163e-05   4.470e-06
  cdtot     3.813e-16   5.605e-16   5.141e-16   4.238e-16   5.978e-16
  cgtot     6.463e-16   8.598e-16   7.896e-16   7.389e-16   6.779e-16
  cstot     6.641e-16   8.611e-16   9.088e-16   9.183e-16   5.943e-16
  cbtot     5.490e-16   7.357e-16   8.206e-16   7.973e-16   5.700e-16
  cgs       4.500e-16   5.284e-16   5.025e-16   5.239e-16   3.839e-16
  cgd       1.850e-16   2.989e-16   2.425e-16   1.723e-16   2.901e-16



 subckt    xdffcr      xibuf.xbuf  xibuf.xbuf  xibuf.xbuf  xibuf.xbuf
 element   4:mn3       8:mp0       8:mn0       9:mp0       9:mn0     
 model     0:nmos      0:pmos      0:nmos      0:pmos      0:nmos    
 region    Saturation  Linear      Subth       Subth       Linear    
  id        7.160e-06  -1.026e-07   9.195e-08  -1.086e-07   1.147e-07
  ibs       9.663e-26  -1.080e-24   1.707e-23  -2.843e-23   2.448e-25
  ibd      -1.024e-13   7.993e-16  -1.818e-11   3.030e-11  -2.340e-16
  vgs         0.4018     -1.0000      0.       -1.281e-05     1.0000 
  vds       4.311e-02  -1.281e-05     1.0000     -1.0000    1.125e-05
  vbs         0.          0.          0.          0.          0.     
  vth         0.3949     -0.3399      0.3091     -0.2308      0.3988 
  vdsat     6.331e-02    -0.4882    3.869e-02  -4.604e-02     0.2948 
  vod       6.867e-03    -0.6601     -0.3091      0.2307      0.6012 
  beta      8.274e-03   1.510e-02   8.278e-02   1.354e-02   4.921e-02
  gam eff     0.4000      0.4000      0.4000      0.4000      0.4000 
  gm        9.829e-05   9.557e-08   2.416e-06   2.846e-06   5.391e-08
  gds       1.005e-04   8.005e-03   2.321e-07   3.403e-07   1.019e-02
  gmb       2.292e-05   3.653e-08   6.256e-07   6.465e-07   2.303e-08
  cdtot     4.095e-16   1.485e-14   2.573e-15   4.226e-15   5.021e-15
  cgtot     5.256e-16   1.596e-14   3.325e-15   5.367e-15   5.257e-15
  cstot     5.733e-16   1.317e-14   4.510e-15   7.455e-15   4.347e-15
  cbtot     5.688e-16   1.298e-14   4.866e-15   8.060e-15   4.344e-15
  cgs       2.795e-16   8.911e-15   1.630e-15   2.655e-15   2.858e-15
  cgd       2.077e-16   7.051e-15   1.141e-15   1.839e-15   2.419e-15



 subckt    xibuf.xbuf  xibuf.xbuf  xibuf.xbuf  xibuf.xbuf  xibuf.xbuf
 element  10:mp0      10:mn0      11:mp0      11:mn0      12:mp0     
 model     0:pmos      0:nmos      0:pmos      0:nmos      0:pmos    
 region    Linear      Subth       Subth       Linear      Linear    
  id       -8.685e-08   7.665e-08  -1.086e-07   1.147e-07  -8.685e-08
  ibs      -7.267e-25   1.422e-23  -2.843e-23   2.448e-25  -7.267e-25
  ibd       6.769e-16  -1.515e-11   3.030e-11  -2.341e-16   6.769e-16
  vgs        -1.0000    1.125e-05  -1.627e-05     1.0000     -1.0000 
  vds      -1.627e-05     1.0000     -1.0000    1.125e-05  -1.627e-05
  vbs         0.          0.          0.          0.          0.     
  vth        -0.3399      0.3091     -0.2308      0.3988     -0.3399 
  vdsat      -0.4882    3.869e-02  -4.604e-02     0.2948     -0.4882 
  vod        -0.6601     -0.3091      0.2307      0.6012     -0.6601 
  beta      1.007e-02   6.898e-02   1.354e-02   4.921e-02   1.007e-02
  gam eff     0.4000      0.4000      0.4000      0.4000      0.4000 
  gm        8.094e-08   2.014e-06   2.846e-06   5.391e-08   8.094e-08
  gds       5.337e-03   1.935e-07   3.403e-07   1.019e-02   5.337e-03
  gmb       3.094e-08   5.215e-07   6.466e-07   2.303e-08   3.094e-08
  cdtot     9.897e-15   2.144e-15   4.226e-15   5.021e-15   9.897e-15
  cgtot     1.064e-14   2.771e-15   5.367e-15   5.257e-15   1.064e-14
  cstot     8.783e-15   3.759e-15   7.455e-15   4.347e-15   8.783e-15
  cbtot     8.651e-15   4.055e-15   8.060e-15   4.344e-15   8.651e-15
  cgs       5.941e-15   1.359e-15   2.655e-15   2.858e-15   5.941e-15
  cgd       4.701e-15   9.510e-16   1.839e-15   2.419e-15   4.701e-15



 subckt    xibuf.xbuf  xibuf.xbuf  xibuf.xbuf  xibuf.xbuf  xibuf.xbuf
 element  12:mn0      13:mp0      13:mn0      14:mp0      14:mn0     
 model     0:nmos      0:pmos      0:nmos      0:pmos      0:nmos    
 region    Subth       Subth       Linear      Linear      Subth     
  id        7.665e-08  -1.086e-07   1.136e-07  -4.053e-08   3.577e-08
  ibs       1.422e-23  -2.843e-23   2.448e-25  -3.600e-25   6.638e-24
  ibd      -1.515e-11   3.030e-11  -2.319e-16   3.159e-16  -7.070e-12
  vgs       1.125e-05  -1.627e-05     1.0000     -1.0000    1.115e-05
  vds         1.0000     -1.0000    1.115e-05  -1.519e-05     1.0000 
  vbs         0.          0.          0.          0.          0.     
  vth         0.3091     -0.2308      0.3988     -0.3399      0.3091 
  vdsat     3.869e-02  -4.604e-02     0.2948     -0.4882    3.869e-02
  vod        -0.3091      0.2307      0.6012     -0.6601     -0.3091 
  beta      6.898e-02   1.354e-02   4.921e-02   5.033e-03   3.219e-02
  gam eff     0.4000      0.4000      0.4000      0.4000      0.4000 
  gm        2.014e-06   2.846e-06   5.342e-08   3.777e-08   9.400e-07
  gds       1.935e-07   3.403e-07   1.019e-02   2.668e-03   9.029e-08
  gmb       5.215e-07   6.466e-07   2.282e-08   1.444e-08   2.433e-07
  cdtot     2.144e-15   4.226e-15   5.021e-15   4.948e-15   1.001e-15
  cgtot     2.771e-15   5.367e-15   5.257e-15   5.320e-15   1.293e-15
  cstot     3.759e-15   7.455e-15   4.347e-15   4.391e-15   1.754e-15
  cbtot     4.055e-15   8.060e-15   4.344e-15   4.326e-15   1.892e-15
  cgs       1.359e-15   2.655e-15   2.858e-15   2.970e-15   6.340e-16
  cgd       9.510e-16   1.839e-15   2.419e-15   2.350e-15   4.438e-16



 subckt    xibuf.xbuf  xibuf.xbuf  xobufa.xbu  xobufa.xbu  xobufa.xbu
 element  15:mp0      15:mn0      16:mp0      16:mn0      17:mp0     
 model     0:pmos      0:nmos      0:pmos      0:nmos      0:pmos    
 region    Subth       Linear      Saturation  Saturation  Saturation
  id       -4.343e-08   4.541e-08  -2.231e-05   2.231e-05  -2.846e-05
  ibs      -1.137e-23   1.142e-25  -9.325e-25   5.758e-25  -2.153e-24
  ibd       1.212e-11  -9.266e-17   9.524e-13  -5.438e-13   2.187e-12
  vgs      -1.519e-05     1.0000     -0.5259      0.4741     -0.4662 
  vds        -1.0000    9.547e-06    -0.4662      0.5338     -0.7190 
  vbs         0.          0.          0.          0.          0.     
  vth        -0.2308      0.3988     -0.2890      0.3509     -0.2614 
  vdsat    -4.604e-02     0.2948     -0.2222      0.1043     -0.1994 
  vod         0.2307      0.6012     -0.2369      0.1232     -0.2048 
  beta      5.416e-03   2.297e-02   8.354e-04   4.219e-03   1.309e-03
  gam eff     0.4000      0.4000      0.4000      0.4000      0.4000 
  gm        1.139e-06   2.134e-08   1.453e-04   1.934e-04   2.138e-04
  gds       1.361e-07   4.756e-03   2.243e-05   2.057e-05   2.961e-05
  gmb       2.586e-07   9.119e-09   3.158e-05   4.478e-05   4.607e-05
  cdtot     1.690e-15   2.343e-15   3.549e-16   1.701e-16   4.555e-16
  cgtot     2.147e-15   2.453e-15   6.194e-16   2.930e-16   8.565e-16
  cstot     2.982e-15   2.029e-15   6.592e-16   3.241e-16   9.826e-16
  cbtot     3.224e-15   2.027e-15   5.431e-16   2.716e-16   8.026e-16
  cgs       1.062e-15   1.334e-15   4.393e-16   2.056e-16   6.459e-16
  cgd       7.356e-16   1.129e-15   1.666e-16   7.904e-17   1.874e-16



 subckt    xobufa.xbu  xobufa.xbu  xobufa.xbu  xobufa.xbu  xobufa.xbu
 element  17:mn0      18:mp0      18:mn0      19:mp0      19:mn0     
 model     0:nmos      0:pmos      0:nmos      0:pmos      0:nmos    
 region    Saturation  Linear      Subth       Subth       Linear    
  id        2.846e-05  -6.453e-06   6.452e-06  -2.580e-08   2.670e-08
  ibs       3.055e-25  -6.667e-26   2.135e-24  -4.740e-24   2.490e-26
  ibd      -2.910e-13   7.082e-14  -1.993e-12   5.050e-12  -5.485e-17
  vgs         0.5338     -0.7190      0.2810   -1.361e-02     0.9864 
  vds         0.2810   -1.361e-02     0.9864     -1.0000    1.978e-05
  vbs         0.          0.          0.          0.          0.     
  vth         0.3736     -0.3384      0.3103     -0.2308      0.3988 
  vdsat       0.1199     -0.3188    5.329e-02  -4.614e-02     0.2897 
  vod         0.1602     -0.3806   -2.932e-02     0.2171      0.5876 
  beta      4.069e-03   1.501e-03   9.089e-03   2.257e-03   6.602e-03
  gam eff     0.4000      0.4000      0.4000      0.4000      0.4000 
  gm        2.017e-04   1.346e-05   1.146e-04   6.697e-07   1.310e-08
  gds       2.643e-05   4.650e-04   1.120e-05   8.014e-08   1.350e-03
  gmb       4.725e-05   3.948e-06   2.626e-05   1.509e-07   5.512e-09
  cdtot     1.930e-16   1.227e-15   2.886e-16   7.045e-16   6.685e-16
  cgtot     3.163e-16   1.378e-15   4.134e-16   8.988e-16   7.006e-16
  cstot     3.281e-16   1.195e-15   5.466e-16   1.248e-15   5.798e-16
  cbtot     2.764e-16   1.151e-15   5.329e-16   1.342e-15   5.792e-16
  cgs       2.134e-16   7.875e-16   2.375e-16   4.477e-16   3.810e-16
  cgd       9.613e-17   5.824e-16   1.280e-16   3.068e-16   3.220e-16



 subckt    xobufa.xbu  xobufa.xbu  xobufa.xbu  xobufa.xbu  xobufa.xbu
 element  20:mp0      20:mn0      21:mp0      21:mn0      22:mp0     
 model     0:pmos      0:nmos      0:pmos      0:nmos      0:pmos    
 region    Linear      Subth       Subth       Linear      Linear    
  id       -1.902e-08   1.533e-08  -4.343e-08   4.666e-08  -7.608e-08
  ibs      -1.460e-25   2.845e-24  -1.137e-23   9.790e-26  -5.787e-25
  ibd       1.483e-16  -3.030e-12   1.212e-11  -9.523e-17   5.930e-16
  vgs        -1.0000    1.978e-05  -1.782e-05     1.0000     -1.0000 
  vds      -1.782e-05     1.0000     -1.0000    1.145e-05  -1.782e-05
  vbs         0.          0.          0.          0.          0.     
  vth        -0.3399      0.3091     -0.2308      0.3988     -0.3399 
  vdsat      -0.4882    3.869e-02  -4.604e-02     0.2948     -0.4882 
  vod        -0.6601     -0.3091      0.2307      0.6012     -0.6601 
  beta      2.013e-03   1.380e-02   5.416e-03   1.968e-02   8.053e-03
  gam eff     0.4000      0.4000      0.4000      0.4000      0.4000 
  gm        1.773e-08   4.029e-07   1.139e-06   2.194e-08   7.090e-08
  gds       1.067e-03   3.870e-08   1.361e-07   4.077e-03   4.269e-03
  gmb       6.776e-09   1.043e-07   2.586e-07   9.372e-09   2.710e-08
  cdtot     1.979e-15   4.289e-16   1.690e-15   2.009e-15   7.918e-15
  cgtot     2.128e-15   5.542e-16   2.147e-15   2.103e-15   8.511e-15
  cstot     1.757e-15   7.517e-16   2.982e-15   1.739e-15   7.026e-15
  cbtot     1.730e-15   8.110e-16   3.224e-15   1.738e-15   6.921e-15
  cgs       1.188e-15   2.717e-16   1.062e-15   1.143e-15   4.753e-15
  cgd       9.401e-16   1.902e-16   7.356e-16   9.675e-16   3.760e-15



 subckt    xobufa.xbu  xobufa.xbu  xobufa.xbu  xobufa.xbu  xobufa.xbu
 element  22:mn0      23:mp0      23:mn0      24:mp0      24:mn0     
 model     0:nmos      0:pmos      0:nmos      0:pmos      0:nmos    
 region    Subth       Subth       Linear      Linear      Subth     
  id        6.132e-08  -1.737e-07   1.846e-07  -2.030e-07   1.635e-07
  ibs       1.138e-23  -4.550e-23   3.916e-25  -2.315e-24   3.034e-23
  ibd      -1.212e-11   4.848e-11  -3.767e-16   1.582e-15  -3.232e-11
  vgs       1.145e-05  -1.782e-05     1.0000     -1.0000    1.132e-05
  vds         1.0000     -1.0000    1.132e-05  -1.188e-05     1.0000 
  vbs         0.          0.          0.          0.          0.     
  vth         0.3091     -0.2308      0.3988     -0.3399      0.3091 
  vdsat     3.869e-02  -4.604e-02     0.2948     -0.4882    3.869e-02
  vod        -0.3091      0.2307      0.6012     -0.6601     -0.3091 
  beta      5.519e-02   2.167e-02   7.874e-02   3.221e-02     0.1472 
  gam eff     0.4000      0.4000      0.4000      0.4000      0.4000 
  gm        1.611e-06   4.554e-06   8.678e-08   1.891e-07   4.297e-06
  gds       1.548e-07   5.445e-07   1.631e-02   1.708e-02   4.128e-07
  gmb       4.172e-07   1.035e-06   3.708e-08   7.229e-08   1.112e-06
  cdtot     1.715e-15   6.761e-15   8.034e-15   3.167e-14   4.575e-15
  cgtot     2.217e-15   8.587e-15   8.411e-15   3.405e-14   5.912e-15
  cstot     3.007e-15   1.193e-14   6.955e-15   2.810e-14   8.018e-15
  cbtot     3.244e-15   1.290e-14   6.950e-15   2.768e-14   8.650e-15
  cgs       1.087e-15   4.248e-15   4.573e-15   1.901e-14   2.898e-15
  cgd       7.608e-16   2.942e-15   3.870e-15   1.504e-14   2.029e-15



 subckt    xobufa.xbu  xobufa.xbu  xobufb.xbu  xobufb.xbu  xobufb.xbu
 element  25:mp0      25:mn0      26:mp0      26:mn0      27:mp0     
 model     0:pmos      0:nmos      0:pmos      0:nmos      0:pmos    
 region    Subth       Linear      Linear      Saturation  Subth     
  id       -7.599e-07   7.778e-07  -1.579e-05   1.579e-05  -1.728e-07
  ibs      -1.990e-22   1.045e-24  -2.276e-25   9.297e-25  -2.855e-24
  ibd       2.121e-10  -1.587e-15   2.418e-13  -8.990e-13   3.029e-12
  vgs      -1.188e-05     1.0000     -0.5982      0.4018     -0.1110 
  vds        -1.0000    1.789e-05    -0.1110      0.8890     -0.9997 
  vbs         0.          0.          0.          0.          0.     
  vth        -0.2308      0.3988     -0.3277      0.3191     -0.2308 
  vdsat    -4.604e-02     0.2948     -0.2464    8.776e-02  -4.931e-02
  vod         0.2307      0.6012     -0.2705    8.273e-02     0.1198 
  beta      9.479e-02     0.2100    7.895e-04   4.410e-03   1.354e-03
  gam eff     0.4000      0.4000      0.4000      0.4000      0.4000 
  gm        1.992e-05   3.656e-07   6.265e-05   1.698e-04   4.048e-06
  gds       2.382e-06   4.348e-02   1.100e-04   1.711e-05   4.882e-07
  gmb       4.525e-06   1.562e-07   1.529e-05   3.889e-05   8.697e-07
  cdtot     2.958e-14   2.142e-14   4.189e-16   1.462e-16   4.239e-16
  cgtot     3.757e-14   2.243e-14   6.531e-16   2.632e-16   5.569e-16
  cstot     5.218e-14   1.855e-14   6.589e-16   3.158e-16   7.693e-16
  cbtot     5.642e-14   1.853e-14   5.607e-16   2.666e-16   8.009e-16
  cgs       1.858e-14   1.220e-14   4.426e-16   1.903e-16   2.901e-16
  cgd       1.287e-14   1.032e-14   1.999e-16   6.165e-17   1.851e-16



 subckt    xobufb.xbu  xobufb.xbu  xobufb.xbu  xobufb.xbu  xobufb.xbu
 element  27:mn0      28:mp0      28:mn0      29:mp0      29:mn0     
 model     0:nmos      0:pmos      0:nmos      0:pmos      0:nmos    
 region    Linear      Linear      Subth       Subth       Linear    
  id        1.732e-07  -1.220e-08   1.029e-08  -2.171e-08   2.308e-08
  ibs       2.042e-27  -9.645e-26   1.896e-24  -5.687e-24   4.895e-26
  ibd      -3.760e-16   9.511e-17  -2.020e-12   6.060e-12  -4.709e-17
  vgs         0.8890     -0.9997    2.715e-04  -1.715e-05     1.0000 
  vds       2.715e-04  -1.715e-05     1.0000     -1.0000    1.132e-05
  vbs         0.          0.          0.          0.          0.     
  vth         0.3988     -0.3399      0.3091     -0.2308      0.3988 
  vdsat       0.2525     -0.4881    3.869e-02  -4.604e-02     0.2948 
  vod         0.4902     -0.6599     -0.3088      0.2307      0.6012 
  beta      3.450e-03   1.342e-03   9.198e-03   2.708e-03   9.842e-03
  gam eff     0.4000      0.4000      0.4000      0.4000      0.4000 
  gm        1.183e-07   1.138e-08   2.704e-07   5.693e-07   1.085e-08
  gds       6.374e-04   7.114e-04   2.597e-08   6.806e-08   2.038e-03
  gmb       4.460e-08   4.347e-09   6.999e-08   1.293e-07   4.634e-09
  cdtot     3.300e-16   1.320e-15   2.859e-16   8.451e-16   1.004e-15
  cgtot     3.486e-16   1.419e-15   3.695e-16   1.073e-15   1.051e-15
  cstot     2.908e-16   1.171e-15   5.012e-16   1.491e-15   8.694e-16
  cbtot     2.896e-16   1.153e-15   5.406e-16   1.612e-15   8.688e-16
  cgs       1.902e-16   7.921e-16   1.812e-16   5.310e-16   5.716e-16
  cgd       1.591e-16   6.267e-16   1.268e-16   3.678e-16   4.837e-16



 subckt    xobufb.xbu  xobufb.xbu  xobufb.xbu  xobufb.xbu  xobufb.xbu
 element  30:mp0      30:mn0      31:mp0      31:mn0      32:mp0     
 model     0:pmos      0:nmos      0:pmos      0:nmos      0:pmos    
 region    Linear      Subth       Subth       Linear      Linear    
  id       -2.372e-08   2.044e-08  -5.428e-08   5.699e-08  -6.344e-08
  ibs      -2.893e-25   3.793e-24  -1.422e-23   8.163e-26  -7.200e-25
  ibd       1.849e-16  -4.040e-12   1.515e-11  -1.163e-16   4.944e-16
  vgs        -1.0000    1.132e-05  -1.111e-05     1.0000     -1.0000 
  vds      -1.111e-05     1.0000     -1.0000    1.678e-05  -1.189e-05
  vbs         0.          0.          0.          0.          0.     
  vth        -0.3399      0.3091     -0.2308      0.3988     -0.3399 
  vdsat      -0.4882    3.869e-02  -4.604e-02     0.2948     -0.4882 
  vod        -0.6601     -0.3091      0.2307      0.6012     -0.6601 
  beta      4.027e-03   1.840e-02   6.771e-03   1.640e-02   1.007e-02
  gam eff     0.4000      0.4000      0.4000      0.4000      0.4000 
  gm        2.210e-08   5.371e-07   1.423e-06   2.679e-08   5.912e-08
  gds       2.135e-03   5.160e-08   1.701e-07   3.397e-03   5.337e-03
  gmb       8.448e-09   1.391e-07   3.232e-07   1.145e-08   2.260e-08
  cdtot     3.959e-15   5.718e-16   2.113e-15   1.674e-15   9.897e-15
  cgtot     4.256e-15   7.390e-16   2.683e-15   1.752e-15   1.064e-14
  cstot     3.513e-15   1.002e-15   3.727e-15   1.449e-15   8.783e-15
  cbtot     3.460e-15   1.081e-15   4.030e-15   1.448e-15   8.651e-15
  cgs       2.376e-15   3.623e-16   1.327e-15   9.527e-16   5.941e-15
  cgd       1.880e-15   2.536e-16   9.195e-16   8.062e-16   4.701e-15



 subckt    xobufb.xbu  xobufb.xbu  xobufb.xbu  xobufc.xbu  xobufc.xbu
 element  32:mn0      33:mp0      33:mn0      34:mp0      34:mn0     
 model     0:nmos      0:pmos      0:nmos      0:pmos      0:nmos    
 region    Subth       Subth       Linear      Linear      Subth     
  id        5.111e-08  -2.533e-07   2.589e-07  -1.985e-08   1.920e-08
  ibs       9.482e-24  -6.635e-23   3.266e-25  -1.756e-26   9.497e-25
  ibd      -1.010e-11   7.070e-11  -5.283e-16   1.626e-16  -1.010e-12
  vgs       1.678e-05  -1.189e-05     1.0000     -0.9491    5.094e-02
  vds         1.0000     -1.0000    1.905e-05  -5.867e-05     0.9999 
  vbs         0.          0.          0.          0.          0.     
  vth         0.3091     -0.2308      0.3988     -0.3398      0.3091 
  vdsat     3.869e-02  -4.604e-02     0.2948     -0.4583    3.877e-02
  vod        -0.3091      0.2307      0.6012     -0.6092     -0.2582 
  beta      4.599e-02   3.160e-02   6.561e-02   6.850e-04   4.599e-03
  gam eff     0.4000      0.4000      0.4000      0.4000      0.4000 
  gm        1.343e-06   6.641e-06   1.217e-07   2.085e-08   4.926e-07
  gds       1.290e-07   7.939e-07   1.359e-02   3.383e-04   4.739e-08
  gmb       3.477e-07   1.508e-06   5.199e-08   7.630e-09   1.237e-07
  cdtot     1.430e-15   9.860e-15   6.695e-15   6.561e-16   1.432e-16
  cgtot     1.847e-15   1.252e-14   7.009e-15   7.068e-16   1.878e-16
  cstot     2.506e-15   1.739e-14   5.796e-15   5.857e-16   2.543e-16
  cbtot     2.703e-15   1.881e-14   5.792e-15   5.768e-16   2.694e-16
  cgs       9.057e-16   6.195e-15   3.811e-15   3.947e-16   9.431e-17
  cgd       6.340e-16   4.291e-15   3.225e-15   3.117e-16   6.360e-17



 subckt    xobufc.xbu  xobufc.xbu  xobufc.xbu  xobufc.xbu  xobufc.xbu
 element  35:mp0      35:mn0      36:mp0      36:mn0      37:mp0     
 model     0:pmos      0:nmos      0:pmos      0:nmos      0:pmos    
 region    Subth       Linear      Linear      Subth       Subth     
  id       -1.087e-08   1.141e-08  -1.213e-08   1.022e-08  -2.171e-08
  ibs      -2.843e-24   1.631e-26  -9.734e-26   1.896e-24  -5.687e-24
  ibd       3.030e-12  -2.328e-17   9.455e-17  -2.020e-12   6.060e-12
  vgs      -5.867e-05     0.9999     -1.0000    1.679e-05  -1.705e-05
  vds        -1.0000    1.679e-05  -1.705e-05     1.0000     -1.0000 
  vbs         0.          0.          0.          0.          0.     
  vth        -0.2308      0.3988     -0.3399      0.3091     -0.2308 
  vdsat    -4.604e-02     0.2948     -0.4882    3.869e-02  -4.604e-02
  vod         0.2307      0.6012     -0.6601     -0.3091      0.2307 
  beta      1.354e-03   3.281e-03   1.342e-03   9.198e-03   2.708e-03
  gam eff     0.4000      0.4000      0.4000      0.4000      0.4000 
  gm        2.849e-07   5.364e-09   1.131e-08   2.686e-07   5.693e-07
  gds       3.407e-08   6.794e-04   7.116e-04   2.580e-08   6.806e-08
  gmb       6.472e-08   2.292e-09   4.321e-09   6.954e-08   1.293e-07
  cdtot     4.226e-16   3.348e-16   1.320e-15   2.859e-16   8.451e-16
  cgtot     5.367e-16   3.505e-16   1.419e-15   3.695e-16   1.073e-15
  cstot     7.455e-16   2.898e-16   1.171e-15   5.011e-16   1.491e-15
  cbtot     8.060e-16   2.896e-16   1.153e-15   5.407e-16   1.612e-15
  cgs       2.655e-16   1.905e-16   7.921e-16   1.811e-16   5.310e-16
  cgd       1.839e-16   1.612e-16   6.267e-16   1.268e-16   3.678e-16



 subckt    xobufc.xbu  xobufc.xbu  xobufc.xbu  xobufc.xbu  xobufc.xbu
 element  37:mn0      38:mp0      38:mn0      39:mp0      39:mn0     
 model     0:nmos      0:pmos      0:nmos      0:pmos      0:nmos    
 region    Linear      Linear      Subth       Subth       Linear    
  id        2.308e-08  -2.592e-08   2.044e-08  -1.013e-07   1.038e-07
  ibs       4.895e-26  -2.920e-25   3.793e-24  -2.654e-23   1.469e-25
  ibd      -4.709e-17   2.020e-16  -4.040e-12   2.828e-11  -2.119e-16
  vgs         1.0000     -1.0000    1.132e-05  -1.214e-05     1.0000 
  vds       1.132e-05  -1.214e-05     1.0000     -1.0000    1.698e-05
  vbs         0.          0.          0.          0.          0.     
  vth         0.3988     -0.3399      0.3091     -0.2308      0.3988 
  vdsat       0.2948     -0.4882    3.869e-02  -4.604e-02     0.2948 
  vod         0.6012     -0.6601     -0.3091      0.2307      0.6012 
  beta      9.842e-03   4.027e-03   1.840e-02   1.264e-02   2.953e-02
  gam eff     0.4000      0.4000      0.4000      0.4000      0.4000 
  gm        1.085e-08   2.416e-08   5.371e-07   2.656e-06   4.881e-08
  gds       2.038e-03   2.135e-03   5.160e-08   3.176e-07   6.115e-03
  gmb       4.634e-09   9.233e-09   1.391e-07   6.034e-07   2.085e-08
  cdtot     1.004e-15   3.959e-15   5.718e-16   3.944e-15   3.013e-15
  cgtot     1.051e-15   4.256e-15   7.390e-16   5.009e-15   3.154e-15
  cstot     8.694e-16   3.513e-15   1.002e-15   6.958e-15   2.608e-15
  cbtot     8.688e-16   3.460e-15   1.081e-15   7.522e-15   2.606e-15
  cgs       5.716e-16   2.376e-15   3.623e-16   2.478e-15   1.715e-15
  cgd       4.837e-16   1.880e-15   2.536e-16   1.716e-15   1.451e-15



 ******
 **** divider ****

 ****** transient analysis tnom=  25.000 temp=  27.000 ******
 clkt= 4.1193e-11  targ= 3.6762e-10   trig= 3.2642e-10
 clkpw= 1.8908e-11  targ= 3.4533e-10   trig= 3.2642e-10
 power= 7.4359e-03  from=   0.             to= 6.0000e-10
 tftoa= 7.9645e-11  targ= 8.3113e-10   trig= 7.5149e-10
 tra= 1.9460e-11  targ= 7.6189e-10   trig= 7.4243e-10
 tfa= 1.8887e-11  targ= 8.0128e-10   trig= 7.8239e-10
 pwa= 4.0341e-11  targ= 7.9183e-10   trig= 7.5149e-10
 pwba= 3.9304e-11  targ= 8.3113e-10   trig= 7.9183e-10
 trpa=   0.2443
 tfpa=   0.2371
 duty_cycleoa=   0.5065
 duty_cycleboa=   0.4935
 duty_cycleclk=   0.4590
 tftob= 1.6059e-10  targ= 1.3321e-09   trig= 1.1715e-09
 trb= 3.5676e-11  targ= 1.1924e-09   trig= 1.1567e-09
 tfb= 4.0236e-11  targ= 1.2743e-09   trig= 1.2341e-09
 pwb= 8.0860e-11  targ= 1.2524e-09   trig= 1.1715e-09
 pwbb= 7.9733e-11  targ= 1.3321e-09   trig= 1.2524e-09
 trpb=   0.2221
 tfpb=   0.2505
 duty_cycleob=   0.5035
 duty_cyclebob=   0.4965
 tftoc= 3.2000e-10  targ= 2.3044e-09   trig= 1.9844e-09
 trc= 7.2986e-11  targ= 2.0297e-09   trig= 1.9568e-09
 tfc= 7.7509e-11  targ= 2.1896e-09   trig= 2.1121e-09
 pwc= 1.6129e-10  targ= 2.1457e-09   trig= 1.9844e-09
 pwbc= 1.5871e-10  targ= 2.3044e-09   trig= 2.1457e-09
 trpc=   0.2281
 tfpc=   0.2422
 duty_cycleoc=   0.5040
 duty_cycleboc=   0.4960

          ***** job concluded
 ******  
 **** divider ****

 ****** job statistics summary tnom=  25.000 temp=  27.000 ******
  
 ******  Machine Information  ******
 CPU:
 model name	: Intel(R) Xeon(R) CPU           E5620  @ 2.40GHz
 cpu MHz	: 2394.000
  
 OS:
 Linux version 2.6.32-696.30.1.el6.x86_64 (mockbuild@c1bl.rdu2.centos.org) (gcc version 4.4.7 20120313 (Red Hat 4.4.7-18) (GCC) ) #1 SMP Tue May 22 03:28:18 UTC 2018


  ******  HSPICE Threads Information  ******

  Command Line Threads Count :    16
  Available CPU Count        :    16
  Actual Threads Count       :    16


  ******  Circuit Statistics  ******
  # nodes       =     413 # elements   =      96
  # resistors   =       0 # capacitors =       3 # inductors   =       0
  # mutual_inds =       0 # vccs       =       0 # vcvs        =       0
  # cccs        =       0 # ccvs       =       0 # volt_srcs   =       3
  # curr_srcs   =       0 # diodes     =       0 # bjts        =       0
  # jfets       =       0 # mosfets    =      90 # U elements  =       0
  # T elements  =       0 # W elements =       0 # B elements  =       0
  # S elements  =       0 # P elements =       0 # va device   =       0
  # vector_srcs =       0 # N elements =       0


  ******  Runtime Statistics (seconds)  ******

  analysis           time    # points   tot. iter  conv.iter
  op point           0.24           1         110
  transient          2.49          41       10658        3686 rev=       398
  readin             0.01
  errchk             0.02
  setup              0.00
  output             0.00


           peak memory used        425.23 megabytes
           total cpu time            2.77 seconds
           total elapsed time        3.68 seconds
           job started at     04:37:08 09/04/2023
           job ended   at     04:37:12 09/04/2023
           job total runtime         3.68 seconds


 lic: Release hspice token(s) 
 lic: total license checkout elapse time:        0.91(s)
